<?xml version="1.0" encoding="UTF-8"?>

<!-- generated on Sun Nov 10 04:15:56 2019 by Eclipse SUMO duarouter Version 1.3.1
<configuration xmlns:xsi="http://www.w3.org/2001/XMLSchema-instance" xsi:noNamespaceSchemaLocation="http://sumo.dlr.de/xsd/duarouterConfiguration.xsd">

    <input>
        <net-file value="osm.net.xml"/>
        <route-files value="osm.passenger.trips.xml"/>
    </input>

    <output>
        <output-file value="osm.passenger.trips.xml.tmp"/>
        <write-trips value="true"/>
    </output>

    <time>
        <begin value="0"/>
        <end value="3600.0"/>
    </time>

    <report>
        <no-warnings value="true"/>
        <ignore-errors value="true"/>
        <no-step-log value="true"/>
    </report>

</configuration>
-->

<routes xmlns:xsi="http://www.w3.org/2001/XMLSchema-instance" xsi:noNamespaceSchemaLocation="http://sumo.dlr.de/xsd/routes_file.xsd">
    <vType id="veh_passenger" vClass="passenger"/>
    <trip id="veh0" type="veh_passenger" depart="0.00" departLane="best" from="36827471#6" to="-135569565#0"/>
    <trip id="veh1" type="veh_passenger" depart="1.11" departLane="best" from="-48482427#1" to="-4520142#6"/>
    <trip id="veh2" type="veh_passenger" depart="2.22" departLane="best" from="4520111#1" to="385645148#0"/>
    <trip id="veh3" type="veh_passenger" depart="3.33" departLane="best" from="62020104#2" to="-30515623#0"/>
    <trip id="veh4" type="veh_passenger" depart="4.44" departLane="best" from="116785472#0" to="-164391748#2"/>
    <trip id="veh5" type="veh_passenger" depart="5.55" departLane="best" from="-4520109#12" to="303129467#2"/>
    <trip id="veh6" type="veh_passenger" depart="6.66" departLane="best" from="-121646897" to="-42788935#4"/>
    <trip id="veh8" type="veh_passenger" depart="8.88" departLane="best" from="-4520109#4" to="342241088#17"/>
    <trip id="veh9" type="veh_passenger" depart="9.99" departLane="best" from="48482429" to="-107760230#1"/>
    <trip id="veh10" type="veh_passenger" depart="11.10" departLane="best" from="48482415#0" to="42295726#5"/>
    <trip id="veh11" type="veh_passenger" depart="12.21" departLane="best" from="-61433948#0" to="-36827472#1"/>
    <trip id="veh12" type="veh_passenger" depart="13.32" departLane="best" departSpeed="max" from="76232780" to="-724661087"/>
    <trip id="veh13" type="veh_passenger" depart="14.43" departLane="best" from="-30517551#0" to="-31237869#0"/>
    <trip id="veh14" type="veh_passenger" depart="15.54" departLane="best" from="507832770#23" to="342241100#1"/>
    <trip id="veh15" type="veh_passenger" depart="16.65" departLane="best" from="303241435#1" to="83423747#2"/>
    <trip id="veh16" type="veh_passenger" depart="17.76" departLane="best" from="-83432668#2" to="323385506#1"/>
    <trip id="veh17" type="veh_passenger" depart="18.87" departLane="best" from="507794808#3" to="36827471#6"/>
    <trip id="veh18" type="veh_passenger" depart="19.98" departLane="best" from="507832774#8" to="340581989#2"/>
    <trip id="veh19" type="veh_passenger" depart="21.09" departLane="best" from="40114658#2" to="-22886419#9"/>
    <trip id="veh20" type="veh_passenger" depart="22.20" departLane="best" from="-4520111#3" to="-507832774#15"/>
    <trip id="veh21" type="veh_passenger" depart="23.31" departLane="best" from="-28885945#2" to="-476050646#5"/>
    <trip id="veh22" type="veh_passenger" depart="24.42" departLane="best" from="-31237877#14" to="-507832770#16"/>
    <trip id="veh23" type="veh_passenger" depart="25.53" departLane="best" from="36812354#0" to="-91998105#8"/>
    <trip id="veh24" type="veh_passenger" depart="26.64" departLane="best" from="-8149308#1" to="-4520109#2"/>
    <trip id="veh25" type="veh_passenger" depart="27.75" departLane="best" from="-48482406#0" to="74399877"/>
    <trip id="veh26" type="veh_passenger" depart="28.86" departLane="best" from="36836343#1" to="342241105"/>
    <trip id="veh27" type="veh_passenger" depart="29.97" departLane="best" from="-372055889#4" to="4520111#2"/>
    <trip id="veh28" type="veh_passenger" depart="31.08" departLane="best" from="89183662#1" to="36836344#2"/>
    <trip id="veh29" type="veh_passenger" depart="32.19" departLane="best" from="31237877#11" to="42295440#1"/>
    <trip id="veh30" type="veh_passenger" depart="33.30" departLane="best" from="507832770#14" to="4767531#1"/>
    <trip id="veh31" type="veh_passenger" depart="34.41" departLane="best" from="-4520111#5" to="-164391763#0"/>
    <trip id="veh32" type="veh_passenger" depart="35.52" departLane="best" from="-507832774#26" to="-507794808#2"/>
    <trip id="veh33" type="veh_passenger" depart="36.63" departLane="best" from="-4518151#0" to="74399906"/>
    <trip id="veh34" type="veh_passenger" depart="37.74" departLane="best" from="58610792#2" to="-62020084#3"/>
    <trip id="veh35" type="veh_passenger" depart="38.85" departLane="best" from="36836343#7" to="116785424#7"/>
    <trip id="veh36" type="veh_passenger" depart="39.96" departLane="best" from="700784718#1" to="23477212#2"/>
    <trip id="veh37" type="veh_passenger" depart="41.07" departLane="best" from="-48482399#1" to="-48482407#0"/>
    <trip id="veh38" type="veh_passenger" depart="42.18" departLane="best" from="31237877#8" to="-48982166#3"/>
    <trip id="veh39" type="veh_passenger" depart="43.29" departLane="best" from="340383376#0" to="6274923#3"/>
    <trip id="veh41" type="veh_passenger" depart="45.51" departLane="best" from="96774795#0" to="303241432#1"/>
    <trip id="veh42" type="veh_passenger" depart="46.62" departLane="best" from="-30516634#4" to="-22977266#1"/>
    <trip id="veh43" type="veh_passenger" depart="47.73" departLane="best" from="-31237909#5" to="36836343#1"/>
    <trip id="veh44" type="veh_passenger" depart="48.84" departLane="best" from="-23477220#10" to="108152050#0"/>
    <trip id="veh45" type="veh_passenger" depart="49.95" departLane="best" from="91998105#8" to="31237869#2"/>
    <trip id="veh46" type="veh_passenger" depart="51.06" departLane="best" from="83418475#4" to="507832774#17"/>
    <trip id="veh47" type="veh_passenger" depart="52.17" departLane="best" from="-108293003#0" to="4520109#12"/>
    <trip id="veh48" type="veh_passenger" depart="53.28" departLane="best" departSpeed="max" from="369036184#0" to="31237890#10"/>
    <trip id="veh49" type="veh_passenger" depart="54.39" departLane="best" from="-48482406#0" to="36836346#1"/>
    <trip id="veh51" type="veh_passenger" depart="56.61" departLane="best" from="22977266#7" to="75119994"/>
    <trip id="veh52" type="veh_passenger" depart="57.72" departLane="best" from="58610792#1" to="-48982166#4"/>
    <trip id="veh53" type="veh_passenger" depart="58.83" departLane="best" from="255865853#3" to="-37967011#1"/>
    <trip id="veh54" type="veh_passenger" depart="59.94" departLane="best" from="700202726" to="53559243#1"/>
    <trip id="veh55" type="veh_passenger" depart="61.05" departLane="best" from="-507832770#18" to="36836344#1"/>
    <trip id="veh56" type="veh_passenger" depart="62.16" departLane="best" from="341691689" to="-36827471#6"/>
    <trip id="veh57" type="veh_passenger" depart="63.27" departLane="best" from="4682884#2" to="31237890#7"/>
    <trip id="veh58" type="veh_passenger" depart="64.38" departLane="best" from="476050528" to="31237877#1"/>
    <trip id="veh59" type="veh_passenger" depart="65.49" departLane="best" from="-107395342#1" to="-62020104#3"/>
    <trip id="veh60" type="veh_passenger" depart="66.60" departLane="best" departSpeed="max" from="-116785424#11" to="74268917"/>
    <trip id="veh61" type="veh_passenger" depart="67.71" departLane="best" departSpeed="max" from="62020053" to="507794808#3"/>
    <trip id="veh62" type="veh_passenger" depart="68.82" departLane="best" departSpeed="max" from="62020053" to="74837536#13"/>
    <trip id="veh63" type="veh_passenger" depart="69.93" departLane="best" from="-30515623#3" to="255866005#0"/>
    <trip id="veh64" type="veh_passenger" depart="71.04" departLane="best" from="-25356228#2" to="473557885#1"/>
    <trip id="veh65" type="veh_passenger" depart="72.15" departLane="best" from="473557885#1" to="-340383389#0"/>
    <trip id="veh66" type="veh_passenger" depart="73.26" departLane="best" from="232493265#7" to="323346984#6"/>
    <trip id="veh67" type="veh_passenger" depart="74.37" departLane="best" from="-48482399#1" to="53559279#0"/>
    <trip id="veh68" type="veh_passenger" depart="75.48" departLane="best" from="121646897" to="-4520109#6"/>
    <trip id="veh69" type="veh_passenger" depart="76.59" departLane="best" departSpeed="max" from="30515623#0" to="4520111#4"/>
    <trip id="veh70" type="veh_passenger" depart="77.70" departLane="best" departSpeed="max" from="-42295727#1" to="-62020081#1"/>
    <trip id="veh71" type="veh_passenger" depart="78.81" departLane="best" from="91998105#4" to="36837892#0"/>
    <trip id="veh72" type="veh_passenger" depart="79.92" departLane="best" from="164391763#5" to="30516632#1"/>
    <trip id="veh73" type="veh_passenger" depart="81.03" departLane="best" from="-33613644#1" to="-45703602#1"/>
    <trip id="veh74" type="veh_passenger" depart="82.14" departLane="best" from="-56701165#3" to="342241088#14"/>
    <trip id="veh75" type="veh_passenger" depart="83.25" departLane="best" from="-255865853#3" to="36836343#4"/>
    <trip id="veh76" type="veh_passenger" depart="84.36" departLane="best" from="-4520111#5" to="665650793"/>
    <trip id="veh77" type="veh_passenger" depart="85.47" departLane="best" from="507832774#4" to="-255865853#2"/>
    <trip id="veh78" type="veh_passenger" depart="86.58" departLane="best" departSpeed="max" from="-45703604#1" to="37825715#6"/>
    <trip id="veh79" type="veh_passenger" depart="87.69" departLane="best" from="-4518151#3" to="-342241088#1"/>
    <trip id="veh80" type="veh_passenger" depart="88.80" departLane="best" from="74399895" to="340383389#2"/>
    <trip id="veh81" type="veh_passenger" depart="89.91" departLane="best" from="232493265#4" to="48482376#3"/>
    <trip id="veh82" type="veh_passenger" depart="91.02" departLane="best" from="48482427#0" to="-42295449#2"/>
    <trip id="veh83" type="veh_passenger" depart="92.13" departLane="best" from="-31237869#1" to="232490555#0"/>
    <trip id="veh84" type="veh_passenger" depart="93.24" departLane="best" from="121646897" to="25356228#2"/>
    <trip id="veh85" type="veh_passenger" depart="94.35" departLane="best" from="4520109#2" to="37997250#0"/>
    <trip id="veh86" type="veh_passenger" depart="95.46" departLane="best" from="89183639#2" to="-31237869#6"/>
    <trip id="veh87" type="veh_passenger" depart="96.57" departLane="best" from="108152045#1" to="-74837536#10"/>
    <trip id="veh88" type="veh_passenger" depart="97.68" departLane="best" from="507832774#8" to="-48482407#5"/>
    <trip id="veh89" type="veh_passenger" depart="98.79" departLane="best" departSpeed="max" from="-42295443#1" to="232493265#9"/>
    <trip id="veh90" type="veh_passenger" depart="99.90" departLane="best" from="116785472#0" to="-507832770#18"/>
    <trip id="veh92" type="veh_passenger" depart="102.12" departLane="best" from="22776252#6" to="507832774#2"/>
    <trip id="veh93" type="veh_passenger" depart="103.23" departLane="best" from="96774802#0" to="507832763"/>
    <trip id="veh95" type="veh_passenger" depart="105.45" departLane="best" from="507832770#5" to="-36837892#11"/>
    <trip id="veh96" type="veh_passenger" depart="106.56" departLane="best" from="23477166#1" to="-4520110#0"/>
    <trip id="veh97" type="veh_passenger" depart="107.67" departLane="best" from="107760250" to="-23477166#1"/>
    <trip id="veh98" type="veh_passenger" depart="108.78" departLane="best" from="-83432668#3" to="89183639#5"/>
    <trip id="veh99" type="veh_passenger" depart="109.89" departLane="best" from="-48482401" to="48482376#0"/>
    <trip id="veh100" type="veh_passenger" depart="111.00" departLane="best" departSpeed="max" from="232483173" to="22977266#3"/>
    <trip id="veh101" type="veh_passenger" depart="112.11" departLane="best" departSpeed="max" from="76232780" to="91998105#4"/>
    <trip id="veh102" type="veh_passenger" depart="113.22" departLane="best" departSpeed="max" from="31237877#0" to="4520109#0"/>
    <trip id="veh104" type="veh_passenger" depart="115.44" departLane="best" from="83418475#0" to="340581997"/>
    <trip id="veh105" type="veh_passenger" depart="116.55" departLane="best" from="30515623#2" to="458067678#0"/>
    <trip id="veh106" type="veh_passenger" depart="117.66" departLane="best" from="-23477164#1" to="341691688"/>
    <trip id="veh107" type="veh_passenger" depart="118.77" departLane="best" from="255865855#0" to="507832770#9"/>
    <trip id="veh108" type="veh_passenger" depart="119.88" departLane="best" from="-36827477#0" to="78485530#0"/>
    <trip id="veh109" type="veh_passenger" depart="120.99" departLane="best" from="-28885945#3" to="-42295440#0"/>
    <trip id="veh110" type="veh_passenger" depart="122.10" departLane="best" from="340383389#0" to="37997250#2"/>
    <trip id="veh111" type="veh_passenger" depart="123.21" departLane="best" departSpeed="max" from="-45703582#1" to="-323346942#4"/>
    <trip id="veh112" type="veh_passenger" depart="124.32" departLane="best" from="62020099#4" to="-48482406#3"/>
    <trip id="veh113" type="veh_passenger" depart="125.43" departLane="best" from="340383387" to="36827471#8"/>
    <trip id="veh114" type="veh_passenger" depart="126.54" departLane="best" from="116785424#7" to="341691687"/>
    <trip id="veh115" type="veh_passenger" depart="127.65" departLane="best" from="28885945#5" to="74399868"/>
    <trip id="veh116" type="veh_passenger" depart="128.76" departLane="best" from="-42640353#4" to="4518151#4"/>
    <trip id="veh117" type="veh_passenger" depart="129.87" departLane="best" departSpeed="max" from="-45703604#1" to="116785424#7"/>
    <trip id="veh118" type="veh_passenger" depart="130.98" departLane="best" from="36837892#10" to="-557566275#1"/>
    <trip id="veh119" type="veh_passenger" depart="132.09" departLane="best" from="-507832774#4" to="463466235#0"/>
    <trip id="veh120" type="veh_passenger" depart="133.20" departLane="best" from="-255866004#1" to="23477212#1"/>
    <trip id="veh121" type="veh_passenger" depart="134.31" departLane="best" from="96774795#1" to="91998105#8"/>
    <trip id="veh122" type="veh_passenger" depart="135.42" departLane="best" from="-255866004#2" to="-4520109#9"/>
    <trip id="veh123" type="veh_passenger" depart="136.53" departLane="best" from="-48482401" to="74268919"/>
    <trip id="veh125" type="veh_passenger" depart="138.75" departLane="best" from="-78380745#1" to="-36827477#0"/>
    <trip id="veh126" type="veh_passenger" depart="139.86" departLane="best" from="507832763" to="42640353#0"/>
    <trip id="veh127" type="veh_passenger" depart="140.97" departLane="best" from="342241088#14" to="89183639#9"/>
    <trip id="veh128" type="veh_passenger" depart="142.08" departLane="best" from="36836343#6" to="-108152045#5"/>
    <trip id="veh129" type="veh_passenger" depart="143.19" departLane="best" from="48982166#7" to="-557566275#0"/>
    <trip id="veh130" type="veh_passenger" depart="144.30" departLane="best" from="36836348" to="74399884#1"/>
    <trip id="veh132" type="veh_passenger" depart="146.52" departLane="best" from="-31237890#3" to="323385506#1"/>
    <trip id="veh133" type="veh_passenger" depart="147.63" departLane="best" from="-48482411" to="342241100#3"/>
    <trip id="veh134" type="veh_passenger" depart="148.74" departLane="best" from="42788935#3" to="-4518151#17"/>
    <trip id="veh135" type="veh_passenger" depart="149.85" departLane="best" from="342241108" to="-48982166#7"/>
    <trip id="veh136" type="veh_passenger" depart="150.96" departLane="best" from="23477212#4" to="665650793"/>
    <trip id="veh137" type="veh_passenger" depart="152.07" departLane="best" from="507832770#20" to="-30516634#7"/>
    <trip id="veh138" type="veh_passenger" depart="153.18" departLane="best" from="121646897" to="-507832770#13"/>
    <trip id="veh139" type="veh_passenger" depart="154.29" departLane="best" from="-107760230#1" to="476050527#0"/>
    <trip id="veh140" type="veh_passenger" depart="155.40" departLane="best" from="36827471#0" to="-48982166#21"/>
    <trip id="veh141" type="veh_passenger" depart="156.51" departLane="best" from="4520142#3" to="323385506#1"/>
    <trip id="veh143" type="veh_passenger" depart="158.73" departLane="best" from="-255866004#6" to="56701165#0"/>
    <trip id="veh144" type="veh_passenger" depart="159.84" departLane="best" from="665650794#0-AddedOnRampEdge" to="323346942#0"/>
    <trip id="veh146" type="veh_passenger" depart="162.06" departLane="best" from="-342241092#4" to="-33613725#2"/>
    <trip id="veh147" type="veh_passenger" depart="163.17" departLane="best" from="-507832774#1" to="6274924#1"/>
    <trip id="veh148" type="veh_passenger" depart="164.28" departLane="best" from="48482406#3" to="507832774#17"/>
    <trip id="veh149" type="veh_passenger" depart="165.39" departLane="best" from="6275040#7" to="-4520109#3"/>
    <trip id="veh150" type="veh_passenger" depart="166.50" departLane="best" from="476050646#4" to="56701165#2"/>
    <trip id="veh151" type="veh_passenger" depart="167.61" departLane="best" from="108152049#3" to="36827472#0"/>
    <trip id="veh152" type="veh_passenger" depart="168.72" departLane="best" from="-36827472#0" to="74268918#1"/>
    <trip id="veh153" type="veh_passenger" depart="169.83" departLane="best" from="50979676#2" to="83432668#1"/>
    <trip id="veh155" type="veh_passenger" depart="172.05" departLane="best" from="-116785436#0" to="45702115#1"/>
    <trip id="veh156" type="veh_passenger" depart="173.16" departLane="best" departSpeed="max" from="-56055493" to="74268918#2"/>
    <trip id="veh157" type="veh_passenger" depart="174.27" departLane="best" from="48482410" to="507832774#26"/>
    <trip id="veh158" type="veh_passenger" depart="175.38" departLane="best" from="48982166#11" to="-507794808#0"/>
    <trip id="veh159" type="veh_passenger" depart="176.49" departLane="best" from="48482376#1" to="-31237890#10"/>
    <trip id="veh161" type="veh_passenger" depart="178.71" departLane="best" from="-4520109#8" to="48982166#20"/>
    <trip id="veh162" type="veh_passenger" depart="179.82" departLane="best" from="232490555#0" to="-56701165#2"/>
    <trip id="veh163" type="veh_passenger" depart="180.93" departLane="best" from="48482406#1" to="-4682884#1"/>
    <trip id="veh164" type="veh_passenger" depart="182.04" departLane="best" from="-116785424#8" to="-42640353#2"/>
    <trip id="veh165" type="veh_passenger" depart="183.15" departLane="best" from="8149308#5" to="-507832770#19"/>
    <trip id="veh166" type="veh_passenger" depart="184.26" departLane="best" from="36827472#0" to="121646897"/>
    <trip id="veh168" type="veh_passenger" depart="186.48" departLane="best" from="83418475#3" to="-37967011#1"/>
    <trip id="veh169" type="veh_passenger" depart="187.59" departLane="best" from="78485531#0" to="-495660333"/>
    <trip id="veh170" type="veh_passenger" depart="188.70" departLane="best" from="-31237890#9" to="232491274#2"/>
    <trip id="veh171" type="veh_passenger" depart="189.81" departLane="best" from="4520109#12" to="-62020084#1"/>
    <trip id="veh173" type="veh_passenger" depart="192.03" departLane="best" from="-48482385" to="42788935#0"/>
    <trip id="veh175" type="veh_passenger" depart="194.25" departLane="best" from="303241436#2" to="4520109#10"/>
    <trip id="veh176" type="veh_passenger" depart="195.36" departLane="best" from="4520142#6" to="37967011#3"/>
    <trip id="veh177" type="veh_passenger" depart="196.47" departLane="best" from="-74837536#5" to="-255865853#1"/>
    <trip id="veh178" type="veh_passenger" depart="197.58" departLane="best" from="-507832774#22" to="507832770#20"/>
    <trip id="veh179" type="veh_passenger" depart="198.69" departLane="best" from="451478172" to="-557566275#2"/>
    <trip id="veh180" type="veh_passenger" depart="199.80" departLane="best" from="-507832774#11" to="164391763#3"/>
    <trip id="veh181" type="veh_passenger" depart="200.91" departLane="best" from="108152045#1" to="-507832774#8"/>
    <trip id="veh182" type="veh_passenger" depart="202.02" departLane="best" from="-340383389#2" to="22886419#8"/>
    <trip id="veh183" type="veh_passenger" depart="203.13" departLane="best" from="74837536#10" to="385645148#1"/>
    <trip id="veh184" type="veh_passenger" depart="204.24" departLane="best" from="646510833#2" to="36827471#10"/>
    <trip id="veh185" type="veh_passenger" depart="205.35" departLane="best" from="-507832770#22" to="323346984#0"/>
    <trip id="veh186" type="veh_passenger" depart="206.46" departLane="best" from="-107395342#0" to="-507832774#11"/>
    <trip id="veh188" type="veh_passenger" depart="208.68" departLane="best" from="36836343#6" to="23477220#7"/>
    <trip id="veh189" type="veh_passenger" depart="209.79" departLane="best" from="22776252#4" to="-4520110#0"/>
    <trip id="veh190" type="veh_passenger" depart="210.90" departLane="best" from="232493265#5" to="6275040#7"/>
    <trip id="veh191" type="veh_passenger" depart="212.01" departLane="best" from="48482406#2" to="-369036184#0"/>
    <trip id="veh192" type="veh_passenger" depart="213.12" departLane="best" from="-30515623#1" to="303241436#2"/>
    <trip id="veh193" type="veh_passenger" depart="214.23" departLane="best" from="342241106" to="-724661087"/>
    <trip id="veh194" type="veh_passenger" depart="215.34" departLane="best" from="48982195#0" to="463466234"/>
    <trip id="veh195" type="veh_passenger" depart="216.45" departLane="best" from="36837892#2" to="-45703602#1"/>
    <trip id="veh196" type="veh_passenger" depart="217.56" departLane="best" from="-42295726#5" to="-121646897"/>
    <trip id="veh197" type="veh_passenger" depart="218.67" departLane="best" from="-473557886" to="255617622#1"/>
    <trip id="veh198" type="veh_passenger" depart="219.78" departLane="best" from="507832770#8" to="-255866004#1"/>
    <trip id="veh199" type="veh_passenger" depart="220.89" departLane="best" from="116785419#5" to="36836343#11"/>
    <trip id="veh200" type="veh_passenger" depart="222.00" departLane="best" departSpeed="max" from="-42295446#3" to="42295449#1"/>
    <trip id="veh201" type="veh_passenger" depart="223.11" departLane="best" from="23477220#8" to="-48482402#3"/>
    <trip id="veh203" type="veh_passenger" depart="225.33" departLane="best" from="458067678#0" to="476050524"/>
    <trip id="veh204" type="veh_passenger" depart="226.44" departLane="best" from="-31237890#12" to="22977266#7"/>
    <trip id="veh206" type="veh_passenger" depart="228.66" departLane="best" from="257380793#2" to="-232483173"/>
    <trip id="veh207" type="veh_passenger" depart="229.77" departLane="best" from="-4767531#3" to="507832770#20"/>
    <trip id="veh208" type="veh_passenger" depart="230.88" departLane="best" departSpeed="max" from="232483173" to="48482407#0"/>
    <trip id="veh209" type="veh_passenger" depart="231.99" departLane="best" from="36837821#2" to="89183643#1"/>
    <trip id="veh210" type="veh_passenger" depart="233.10" departLane="best" from="340383389#0" to="74837536#9"/>
    <trip id="veh211" type="veh_passenger" depart="234.21" departLane="best" from="62020104#1" to="36812354#0"/>
    <trip id="veh212" type="veh_passenger" depart="235.32" departLane="best" from="42788935#6" to="303129467#1"/>
    <trip id="veh213" type="veh_passenger" depart="236.43" departLane="best" from="507794809" to="323346942#4"/>
    <trip id="veh214" type="veh_passenger" depart="237.54" departLane="best" from="232493265#6" to="-48982166#16"/>
    <trip id="veh215" type="veh_passenger" depart="238.65" departLane="best" from="-476050646#4" to="36836344#0"/>
    <trip id="veh216" type="veh_passenger" depart="239.76" departLane="best" from="473557885#1" to="30516634#3"/>
    <trip id="veh217" type="veh_passenger" depart="240.87" departLane="best" from="342241100#0" to="-507832770#0"/>
    <trip id="veh218" type="veh_passenger" depart="241.98" departLane="best" from="-28738437#3" to="-507832774#0"/>
    <trip id="veh219" type="veh_passenger" depart="243.09" departLane="best" from="-48482409#1" to="-62020092#0"/>
    <trip id="veh220" type="veh_passenger" depart="244.20" departLane="best" departSpeed="max" from="30515623#0" to="-342241088#26"/>
    <trip id="veh221" type="veh_passenger" depart="245.31" departLane="best" from="-4520142#0" to="42295446#3"/>
    <trip id="veh222" type="veh_passenger" depart="246.42" departLane="best" from="42295446#0" to="-23477220#2"/>
    <trip id="veh223" type="veh_passenger" depart="247.53" departLane="best" from="108152050#0" to="31237912#2"/>
    <trip id="veh224" type="veh_passenger" depart="248.64" departLane="best" from="116785424#0" to="-4520109#0"/>
    <trip id="veh225" type="veh_passenger" depart="249.75" departLane="best" from="116785424#9" to="646510833#2"/>
    <trip id="veh226" type="veh_passenger" depart="250.86" departLane="best" from="340383375#1" to="42295449#0"/>
    <trip id="veh227" type="veh_passenger" depart="251.97" departLane="best" from="507832774#2" to="475267429#2"/>
    <trip id="veh228" type="veh_passenger" depart="253.08" departLane="best" from="-83432669#1" to="-107760230#0"/>
    <trip id="veh229" type="veh_passenger" depart="254.19" departLane="best" from="-6274924#0" to="463467836#1"/>
    <trip id="veh230" type="veh_passenger" depart="255.30" departLane="best" from="507832774#12" to="75119994"/>
    <trip id="veh231" type="veh_passenger" depart="256.41" departLane="best" from="116785424#5" to="458067676"/>
    <trip id="veh232" type="veh_passenger" depart="257.52" departLane="best" from="-4520109#4" to="-4520111#5"/>
    <trip id="veh234" type="veh_passenger" depart="259.74" departLane="best" from="108152047#2" to="-36837892#0"/>
    <trip id="veh235" type="veh_passenger" depart="260.85" departLane="best" from="232493265#10" to="-33613725#2"/>
    <trip id="veh237" type="veh_passenger" depart="263.07" departLane="best" departSpeed="max" from="106468046" to="340383377#2"/>
    <trip id="veh238" type="veh_passenger" depart="264.18" departLane="best" from="-121646897" to="36836348"/>
    <trip id="veh239" type="veh_passenger" depart="265.29" departLane="best" from="-342241088#18" to="23477220#1"/>
    <trip id="veh241" type="veh_passenger" depart="267.51" departLane="best" from="-4518151#11" to="-6274923#3"/>
    <trip id="veh242" type="veh_passenger" depart="268.62" departLane="best" from="4682884#0" to="108152049#1"/>
    <trip id="veh243" type="veh_passenger" depart="269.73" departLane="best" from="458067679" to="507794808#4"/>
    <trip id="veh244" type="veh_passenger" depart="270.84" departLane="best" from="-48482376#3" to="-28885945#6"/>
    <trip id="veh245" type="veh_passenger" depart="271.95" departLane="best" departSpeed="max" from="-116785424#11" to="31237890#7"/>
    <trip id="veh246" type="veh_passenger" depart="273.06" departLane="best" from="96774802#1" to="-8149308#3"/>
    <trip id="veh247" type="veh_passenger" depart="274.17" departLane="best" from="36836343#11" to="480409005#1"/>
    <trip id="veh248" type="veh_passenger" depart="275.28" departLane="best" from="36836343#2" to="463469387"/>
    <trip id="veh249" type="veh_passenger" depart="276.39" departLane="best" from="75119998#0" to="-42788935#5"/>
    <trip id="veh250" type="veh_passenger" depart="277.50" departLane="best" departSpeed="max" from="-116785424#11" to="-36827471#5"/>
    <trip id="veh251" type="veh_passenger" depart="278.61" departLane="best" from="-340383389#1" to="37967011#0"/>
    <trip id="veh252" type="veh_passenger" depart="279.72" departLane="best" from="31237890#12" to="-4520111#3"/>
    <trip id="veh253" type="veh_passenger" depart="280.83" departLane="best" from="385645148#0" to="475267429#2-AddedOffRampEdge"/>
    <trip id="veh254" type="veh_passenger" depart="281.94" departLane="best" from="-36837892#4" to="342241102#0"/>
    <trip id="veh256" type="veh_passenger" depart="284.16" departLane="best" from="49299331#0" to="8149308#10"/>
    <trip id="veh257" type="veh_passenger" depart="285.27" departLane="best" from="-31237890#7" to="-135569565#1"/>
    <trip id="veh258" type="veh_passenger" depart="286.38" departLane="best" from="-507832774#16" to="385645148#1"/>
    <trip id="veh259" type="veh_passenger" depart="287.49" departLane="best" departSpeed="max" from="76232780" to="116785424#9"/>
    <trip id="veh260" type="veh_passenger" depart="288.60" departLane="best" from="42788931#1" to="-255866004#7"/>
    <trip id="veh261" type="veh_passenger" depart="289.71" departLane="best" from="37825715#2" to="36836343#1"/>
    <trip id="veh262" type="veh_passenger" depart="290.82" departLane="best" from="-31237877#2" to="476050528"/>
    <trip id="veh263" type="veh_passenger" depart="291.93" departLane="best" from="507832770#9" to="342241092#0"/>
    <trip id="veh264" type="veh_passenger" depart="293.04" departLane="best" from="-33613644#1" to="89183639#2"/>
    <trip id="veh265" type="veh_passenger" depart="294.15" departLane="best" from="4767531#3" to="-78380745#1"/>
    <trip id="veh266" type="veh_passenger" depart="295.26" departLane="best" from="255866004#1" to="-74837536#4"/>
    <trip id="veh267" type="veh_passenger" depart="296.37" departLane="best" from="507832770#6" to="49299331#2"/>
    <trip id="veh268" type="veh_passenger" depart="297.48" departLane="best" from="-31237890#10" to="78485530#0"/>
    <trip id="veh269" type="veh_passenger" depart="298.59" departLane="best" from="342241110#1" to="507794807"/>
    <trip id="veh270" type="veh_passenger" depart="299.70" departLane="best" from="42295446#2" to="232493263#0"/>
    <trip id="veh271" type="veh_passenger" depart="300.81" departLane="best" from="4520110#3" to="8149308#11"/>
    <trip id="veh272" type="veh_passenger" depart="301.92" departLane="best" departSpeed="max" from="164391763#0" to="4520111#6"/>
    <trip id="veh273" type="veh_passenger" depart="303.03" departLane="best" from="-48482406#3" to="507832770#6"/>