<?xml version="1.0" encoding="UTF-8"?>


<routes xmlns:xsi="http://www.w3.org/2001/XMLSchema-instance" xsi:noNamespaceSchemaLocation="http://sumo.dlr.de/xsd/routes_file.xsd">
    <vType id="veh_passenger" vClass="passenger"/>
    <trip id="veh0" type="veh_passenger" depart="0.00" departLane="best" from="36827471#3" to="-135569565#0"/>
    <trip id="veh1" type="veh_passenger" depart="2.75" departLane="best" from="-48482428" to="-4520142#8"/>
    <trip id="veh2" type="veh_passenger" depart="5.50" departLane="best" from="4520110#7" to="37997250#2"/>
    <trip id="veh3" type="veh_passenger" depart="8.25" departLane="best" from="62020104#2" to="-30515623#1"/>
    <trip id="veh4" type="veh_passenger" depart="11.00" departLane="best" from="121646897" to="-164391748#2"/>
    <trip id="veh5" type="veh_passenger" depart="13.76" departLane="best" from="-4520109#2" to="303129468#1"/>
    <trip id="veh6" type="veh_passenger" depart="16.51" departLane="best" from="-121646897" to="-42788935#5"/>
    <trip id="veh7" type="veh_passenger" depart="19.26" departLane="best" from="36836343#1" to="323346942#2"/>
    <trip id="veh8" type="veh_passenger" depart="22.01" departLane="best" from="-4520109#6" to="342241088#13"/>
    <trip id="veh9" type="veh_passenger" depart="24.76" departLane="best" from="48482428" to="-107760230#1"/>
    <trip id="veh10" type="veh_passenger" depart="27.51" departLane="best" from="48482412#4" to="42295726#0"/>
    <trip id="veh11" type="veh_passenger" depart="30.26" departLane="best" from="-62020074" to="-36827475#0"/>
    <trip id="veh12" type="veh_passenger" depart="33.01" departLane="best" departSpeed="max" from="76232780" to="-74837535#0"/>
    <trip id="veh13" type="veh_passenger" depart="35.76" departLane="best" from="-30517551#0" to="-31237869#1"/>
    <trip id="veh14" type="veh_passenger" depart="38.52" departLane="best" from="507832770#22" to="342241093#1"/>
    <trip id="veh15" type="veh_passenger" depart="41.27" departLane="best" from="48482415#1" to="4520111#1"/>
    <trip id="veh16" type="veh_passenger" depart="44.02" departLane="best" from="303241436#2" to="83423747#2"/>
    <trip id="veh17" type="veh_passenger" depart="46.77" departLane="best" from="507794808#2" to="36827471#3"/>
    <trip id="veh18" type="veh_passenger" depart="49.52" departLane="best" from="507832774#7" to="340581997"/>
    <trip id="veh19" type="veh_passenger" depart="52.27" departLane="best" from="40114658#0" to="-22886419#9"/>
    <trip id="veh20" type="veh_passenger" depart="55.02" departLane="best" from="-4520111#4" to="-507832774#17"/>
    <trip id="veh21" type="veh_passenger" depart="57.77" departLane="best" from="-28885945#3" to="-4767531#1"/>
    <trip id="veh22" type="veh_passenger" depart="60.52" departLane="best" from="-31237877#15" to="-507832770#19"/>
    <trip id="veh23" type="veh_passenger" depart="63.28" departLane="best" from="342241108" to="106468043"/>
    <trip id="veh24" type="veh_passenger" depart="66.03" departLane="best" from="-8149308#12" to="-4520109#3"/>
    <trip id="veh25" type="veh_passenger" depart="68.78" departLane="best" from="-48482406#2" to="74399871#1"/>
    <trip id="veh26" type="veh_passenger" depart="71.53" departLane="best" from="36836343#0" to="342241103"/>
    <trip id="veh27" type="veh_passenger" depart="74.28" departLane="best" from="-372055889#5" to="4520111#0"/>
    <trip id="veh28" type="veh_passenger" depart="77.03" departLane="best" from="-36837821#2" to="108152049#4"/>
    <trip id="veh29" type="veh_passenger" depart="79.78" departLane="best" from="89183662#1" to="36836344#1"/>
    <trip id="veh30" type="veh_passenger" depart="82.53" departLane="best" from="31237877#15" to="42295440#1"/>
    <trip id="veh31" type="veh_passenger" depart="85.28" departLane="best" from="507832770#13" to="476050646#5"/>
    <trip id="veh32" type="veh_passenger" depart="88.04" departLane="best" from="-4520111#7" to="-164391763#0"/>
    <trip id="veh33" type="veh_passenger" depart="90.79" departLane="best" from="-507832774#5" to="-507832765#0"/>
    <trip id="veh34" type="veh_passenger" depart="93.54" departLane="best" from="-4518151#11" to="74399906"/>
    <trip id="veh35" type="veh_passenger" depart="96.29" departLane="best" from="36836343#6" to="116785436#0"/>
    <trip id="veh36" type="veh_passenger" depart="99.04" departLane="best" from="700784718#1" to="23477212#6"/>
    <trip id="veh37" type="veh_passenger" depart="101.79" departLane="best" from="-48482402#2" to="-48482407#2"/>
    <trip id="veh38" type="veh_passenger" depart="104.54" departLane="best" from="31237890#11" to="-48982166#7"/>
    <trip id="veh39" type="veh_passenger" depart="107.29" departLane="best" from="340383376#1" to="6274923#2"/>
    <trip id="veh40" type="veh_passenger" depart="110.04" departLane="best" from="107760250" to="-4520111#7"/>
    <trip id="veh41" type="veh_passenger" depart="112.80" departLane="best" from="96774795#0" to="303241433#1"/>
    <trip id="veh42" type="veh_passenger" depart="115.55" departLane="best" from="-30516634#5" to="-22977266#2"/>
    <trip id="veh43" type="veh_passenger" depart="118.30" departLane="best" from="-31237909#6" to="36836343#0"/>
    <trip id="veh44" type="veh_passenger" depart="121.05" departLane="best" from="-23477220#10" to="108152050#4"/>
    <trip id="veh45" type="veh_passenger" depart="123.80" departLane="best" from="91998105#8" to="31237877#11"/>
    <trip id="veh46" type="veh_passenger" depart="126.55" departLane="best" from="83418475#4" to="507832774#16"/>
    <trip id="veh47" type="veh_passenger" depart="129.30" departLane="best" from="-108293003#0" to="4520109#11"/>
    <trip id="veh48" type="veh_passenger" depart="132.05" departLane="best" from="36837897#5" to="31237890#6"/>
    <trip id="veh49" type="veh_passenger" depart="134.80" departLane="best" from="-48482406#2" to="36836344#2"/>
    <trip id="veh51" type="veh_passenger" depart="140.31" departLane="best" departSpeed="max" from="232483173" to="75119994"/>
    <trip id="veh52" type="veh_passenger" depart="143.06" departLane="best" from="58610792#0" to="-48982166#8"/>
    <trip id="veh53" type="veh_passenger" depart="145.81" departLane="best" from="255865855#0" to="-37967011#2"/>
    <trip id="veh54" type="veh_passenger" depart="148.56" departLane="best" from="700202724#2" to="53559243#1"/>
    <trip id="veh55" type="veh_passenger" depart="151.31" departLane="best" from="-507832770#2" to="36836344#0"/>
    <trip id="veh56" type="veh_passenger" depart="154.06" departLane="best" from="341691688" to="-36827471#7"/>
    <trip id="veh57" type="veh_passenger" depart="156.81" departLane="best" from="4682884#1" to="31237909#5"/>
    <trip id="veh58" type="veh_passenger" depart="159.56" departLane="best" from="476050528" to="31237877#14"/>
    <trip id="veh59" type="veh_passenger" depart="162.32" departLane="best" from="-107395342#1" to="-6274923#0"/>
    <trip id="veh60" type="veh_passenger" depart="165.07" departLane="best" departSpeed="max" from="-116785424#11" to="74268917"/>
    <trip id="veh61" type="veh_passenger" depart="167.82" departLane="best" departSpeed="max" from="62020053" to="507794808#2"/>
    <trip id="veh62" type="veh_passenger" depart="170.57" departLane="best" departSpeed="max" from="62020053" to="74837536#12"/>
    <trip id="veh63" type="veh_passenger" depart="173.32" departLane="best" from="-30515623#3" to="255866006#0"/>
    <trip id="veh64" type="veh_passenger" depart="176.07" departLane="best" from="-255865853#0" to="473557884#1"/>
    <trip id="veh65" type="veh_passenger" depart="178.82" departLane="best" from="473557884#1" to="-340383389#1"/>
    <trip id="veh66" type="veh_passenger" depart="181.57" departLane="best" from="232493265#8" to="323385506#1"/>
    <trip id="veh67" type="veh_passenger" depart="184.32" departLane="best" from="-48482402#2" to="53559243#1"/>
    <trip id="veh68" type="veh_passenger" depart="187.08" departLane="best" from="135569566" to="-4520109#8"/>
    <trip id="veh69" type="veh_passenger" depart="189.83" departLane="best" departSpeed="max" from="30515623#0" to="4520111#2"/>
    <trip id="veh70" type="veh_passenger" depart="192.58" departLane="best" departSpeed="max" from="-42295727#1" to="-62020084#0"/>
    <trip id="veh71" type="veh_passenger" depart="195.33" departLane="best" from="91998105#4" to="36837823#0"/>
    <trip id="veh72" type="veh_passenger" depart="198.08" departLane="best" from="22776252#10" to="30516632#1"/>
    <trip id="veh73" type="veh_passenger" depart="200.83" departLane="best" from="-33613644#1" to="-463466235#0"/>
    <trip id="veh74" type="veh_passenger" depart="203.58" departLane="best" from="-58610792#1" to="342241088#10"/>
    <trip id="veh75" type="veh_passenger" depart="206.33" departLane="best" from="-255865853#3" to="36836343#11"/>
    <trip id="veh76" type="veh_passenger" depart="209.08" departLane="best" from="-4520111#6" to="646510833#2"/>
    <trip id="veh77" type="veh_passenger" depart="211.84" departLane="best" from="507832774#26" to="-255865853#3"/>
    <trip id="veh78" type="veh_passenger" depart="214.59" departLane="best" departSpeed="max" from="-45703604#1" to="37825715#3"/>
    <trip id="veh79" type="veh_passenger" depart="217.34" departLane="best" from="-4518151#4" to="-342241088#1"/>
    <trip id="veh80" type="veh_passenger" depart="220.09" departLane="best" from="74399895" to="340472149#0"/>
    <trip id="veh81" type="veh_passenger" depart="222.84" departLane="best" from="232493265#6" to="48482376#0"/>
    <trip id="veh82" type="veh_passenger" depart="225.59" departLane="best" from="48482415#2" to="-42295726#1"/>
    <trip id="veh83" type="veh_passenger" depart="228.34" departLane="best" from="-31237869#2" to="232491273#2"/>
    <trip id="veh85" type="veh_passenger" depart="233.84" departLane="best" from="4520109#11" to="37967012#0"/>
    <trip id="veh86" type="veh_passenger" depart="236.60" departLane="best" from="89183639#2" to="-31237869#6"/>
    <trip id="veh87" type="veh_passenger" depart="239.35" departLane="best" from="108152047#2" to="-74837536#12"/>
    <trip id="veh88" type="veh_passenger" depart="242.10" departLane="best" from="507832774#7" to="-48482409#0"/>
    <trip id="veh89" type="veh_passenger" depart="244.85" departLane="best" departSpeed="max" from="-42295443#1" to="232493266#0"/>
    <trip id="veh90" type="veh_passenger" depart="247.60" departLane="best" from="121646897" to="-507832770#2"/>
    <trip id="veh92" type="veh_passenger" depart="253.10" departLane="best" from="22886418#1" to="507832774#17"/>
    <trip id="veh93" type="veh_passenger" depart="255.85" departLane="best" from="31237869#2" to="-232483173"/>
    <trip id="veh94" type="veh_passenger" depart="258.60" departLane="best" from="96774802#0" to="507832762"/>
    <trip id="veh96" type="veh_passenger" depart="264.11" departLane="best" from="507832770#3" to="-36837892#2"/>
    <trip id="veh97" type="veh_passenger" depart="266.86" departLane="best" from="23477212#2" to="-4520110#4"/>
    <trip id="veh98" type="veh_passenger" depart="269.61" departLane="best" from="108152045#1" to="-23477166#3"/>
    <trip id="veh99" type="veh_passenger" depart="272.36" departLane="best" from="-83432669#1" to="89183639#4"/>
    <trip id="veh100" type="veh_passenger" depart="275.11" departLane="best" from="-48482402#2" to="483378802"/>
    <trip id="veh101" type="veh_passenger" depart="277.86" departLane="best" from="232490554#2" to="22977266#6"/>
    <trip id="veh102" type="veh_passenger" depart="280.61" departLane="best" departSpeed="max" from="76232780" to="91998105#4"/>
    <trip id="veh103" type="veh_passenger" depart="283.36" departLane="best" from="31237877#13" to="4518151#6"/>
    <trip id="veh106" type="veh_passenger" depart="291.62" departLane="best" from="30516634#2" to="457958563#2"/>
    <trip id="veh107" type="veh_passenger" depart="294.37" departLane="best" from="-23477164#2" to="341691684#2"/>
    <trip id="veh108" type="veh_passenger" depart="297.12" departLane="best" from="255866003#1" to="507832770#8"/>
    <trip id="veh109" type="veh_passenger" depart="299.87" departLane="best" from="-36827477#1" to="78485530#0"/>
    <trip id="veh110" type="veh_passenger" depart="302.62" departLane="best" from="-28885945#3" to="-42295443#0"/>
    <trip id="veh111" type="veh_passenger" depart="305.37" departLane="best" from="340383389#2" to="37997250#0"/>
    <trip id="veh112" type="veh_passenger" depart="308.12" departLane="best" departSpeed="max" from="-45703582#1" to="-323346984#0"/>
    <trip id="veh113" type="veh_passenger" depart="310.88" departLane="best" from="62020099#3" to="-48482407#1"/>
    <trip id="veh114" type="veh_passenger" depart="313.63" departLane="best" from="340383389#1" to="36827471#5"/>
    <trip id="veh115" type="veh_passenger" depart="316.38" departLane="best" from="116785436#0" to="341691684#1"/>
    <trip id="veh116" type="veh_passenger" depart="319.13" departLane="best" from="28969966#2" to="74376375"/>
    <trip id="veh117" type="veh_passenger" depart="321.88" departLane="best" from="-42788931#1" to="4518151#18"/>
    <trip id="veh118" type="veh_passenger" depart="324.63" departLane="best" departSpeed="max" from="-45703604#1" to="116785436#0"/>
    <trip id="veh119" type="veh_passenger" depart="327.38" departLane="best" from="36837823#2" to="-557566275#3"/>
    <trip id="veh120" type="veh_passenger" depart="330.13" departLane="best" from="-507832774#6" to="463466234"/>
    <trip id="veh121" type="veh_passenger" depart="332.88" departLane="best" from="-255866004#1" to="23477212#4"/>
    <trip id="veh122" type="veh_passenger" depart="335.64" departLane="best" from="96774795#1" to="91998105#8"/>
    <trip id="veh123" type="veh_passenger" depart="338.39" departLane="best" from="-255866004#3" to="-4520110#3"/>
    <trip id="veh124" type="veh_passenger" depart="341.14" departLane="best" from="-48482402#2" to="74268919"/>
    <trip id="veh126" type="veh_passenger" depart="346.64" departLane="best" from="-8149308#10" to="-36827477#1"/>
    <trip id="veh127" type="veh_passenger" depart="349.39" departLane="best" from="507832762" to="42295727#1"/>
    <trip id="veh128" type="veh_passenger" depart="352.14" departLane="best" from="342241088#10" to="89183639#9"/>
    <trip id="veh129" type="veh_passenger" depart="354.89" departLane="best" from="36836343#4" to="-108152045#5"/>
    <trip id="veh130" type="veh_passenger" depart="357.64" departLane="best" from="48982166#4" to="-557566275#2"/>
    <trip id="veh131" type="veh_passenger" depart="360.40" departLane="best" from="36836347" to="74399884#1"/>
    <trip id="veh133" type="veh_passenger" depart="365.90" departLane="best" from="-31237890#6" to="33613644#5"/>
    <trip id="veh134" type="veh_passenger" depart="368.65" departLane="best" from="-48482415#1" to="342241100#0"/>
    <trip id="veh135" type="veh_passenger" depart="371.40" departLane="best" from="42788935#0" to="-4518151#3"/>
    <trip id="veh136" type="veh_passenger" depart="374.15" departLane="best" from="342241106" to="-48982166#9"/>
    <trip id="veh137" type="veh_passenger" depart="376.90" departLane="best" from="23477220#1" to="646510833#2"/>
    <trip id="veh138" type="veh_passenger" depart="379.65" departLane="best" from="507832770#2" to="-30516634#7"/>
    <trip id="veh139" type="veh_passenger" depart="382.40" departLane="best" from="135569566" to="-507832770#15"/>
    <trip id="veh140" type="veh_passenger" depart="385.16" departLane="best" from="-107760230#1" to="476050524"/>
    <trip id="veh141" type="veh_passenger" depart="387.91" departLane="best" from="36812354#0" to="-48982166#3"/>
    <trip id="veh142" type="veh_passenger" depart="390.66" departLane="best" from="4520111#8" to="33613644#1"/>
    <trip id="veh143" type="veh_passenger" depart="393.41" departLane="best" from="164391748#1" to="-108152049#2"/>
    <trip id="veh145" type="veh_passenger" depart="398.91" departLane="best" from="665650794#0" to="323346942#4"/>
    <trip id="veh146" type="veh_passenger" depart="401.66" departLane="best" from="507832763" to="341691680#4"/>
    <trip id="veh147" type="veh_passenger" depart="404.41" departLane="best" from="-342241093#1" to="-340383389#0"/>
    <trip id="veh148" type="veh_passenger" depart="407.16" departLane="best" from="-507832774#11" to="6274924#0"/>
    <trip id="veh149" type="veh_passenger" depart="409.92" departLane="best" from="48482406#1" to="507832774#16"/>
    <trip id="veh150" type="veh_passenger" depart="412.67" departLane="best" from="6275040#6" to="-4520109#4"/>
    <trip id="veh151" type="veh_passenger" depart="415.42" departLane="best" from="-4767531#5" to="-31237877#13"/>
    <trip id="veh152" type="veh_passenger" depart="418.17" departLane="best" from="476050646#1" to="56701165#1"/>
    <trip id="veh153" type="veh_passenger" depart="420.92" departLane="best" from="108152050#0" to="36827471#7"/>
    <trip id="veh154" type="veh_passenger" depart="423.67" departLane="best" from="-36827472#1" to="74268918#1"/>
    <trip id="veh155" type="veh_passenger" depart="426.42" departLane="best" from="50979676#1" to="83425739#4-AddedOffRampEdge"/>
    <trip id="veh157" type="veh_passenger" depart="431.92" departLane="best" from="-116785436#1" to="45702115#0"/>
    <trip id="veh159" type="veh_passenger" depart="437.43" departLane="best" departSpeed="max" from="48482409#0" to="507832774#25"/>
    <trip id="veh160" type="veh_passenger" depart="440.18" departLane="best" from="489806256#0" to="-507794808#2"/>
    <trip id="veh161" type="veh_passenger" depart="442.93" departLane="best" from="48482376#0" to="-31237890#11"/>
    <trip id="veh163" type="veh_passenger" depart="448.43" departLane="best" from="-4520110#0" to="48982166#18"/>
    <trip id="veh164" type="veh_passenger" depart="451.18" departLane="best" from="232491274#1" to="-58610792#0"/>
    <trip id="veh165" type="veh_passenger" depart="453.93" departLane="best" from="48482406#0" to="-4682884#2"/>
    <trip id="veh166" type="veh_passenger" depart="456.68" departLane="best" from="-116785424#8" to="-42640353#3"/>
    <trip id="veh168" type="veh_passenger" depart="462.19" departLane="best" from="8149308#5" to="-507832770#20"/>
    <trip id="veh169" type="veh_passenger" depart="464.94" departLane="best" from="36827471#8" to="135569566"/>
    <trip id="veh170" type="veh_passenger" depart="467.69" departLane="best" from="83453053#4" to="31237890#12"/>
    <trip id="veh172" type="veh_passenger" depart="473.19" departLane="best" from="83418475#3" to="-37967011#2"/>
    <trip id="veh173" type="veh_passenger" depart="475.94" departLane="best" from="78485531#0" to="-500699162#0"/>
    <trip id="veh174" type="veh_passenger" depart="478.69" departLane="best" from="-31237890#9" to="232493263#1"/>
    <trip id="veh175" type="veh_passenger" depart="481.44" departLane="best" from="4520109#10" to="-62020091"/>
    <trip id="veh176" type="veh_passenger" depart="484.20" departLane="best" from="341691684#0" to="303241435#1"/>
    <trip id="veh177" type="veh_passenger" depart="486.95" departLane="best" from="-91998105#7" to="340581990#3"/>
    <trip id="veh178" type="veh_passenger" depart="489.70" departLane="best" from="-48482390#1" to="42788931#3"/>
    <trip id="veh179" type="veh_passenger" depart="492.45" departLane="best" from="-107395342#3" to="714160964#1"/>
    <trip id="veh180" type="veh_passenger" depart="495.20" departLane="best" departSpeed="max" from="30515623#0" to="4520109#0"/>
    <trip id="veh181" type="veh_passenger" depart="497.95" departLane="best" from="4520142#3" to="37967011#0"/>
    <trip id="veh182" type="veh_passenger" depart="500.70" departLane="best" from="-74837536#8" to="-255865853#1"/>
    <trip id="veh183" type="veh_passenger" depart="503.45" departLane="best" from="36836348" to="-6275371#0"/>
    <trip id="veh184" type="veh_passenger" depart="506.20" departLane="best" from="-507832774#13" to="22776252#0"/>
    <trip id="veh186" type="veh_passenger" depart="511.71" departLane="best" from="-340383389#2" to="22977266#1"/>
    <trip id="veh187" type="veh_passenger" depart="514.46" departLane="best" from="74837536#1" to="385645148#0"/>
    <trip id="veh188" type="veh_passenger" depart="517.21" departLane="best" from="646510833#2" to="36827471#10"/>
    <trip id="veh189" type="veh_passenger" depart="519.96" departLane="best" from="-507832770#3" to="323346984#6"/>
    <trip id="veh190" type="veh_passenger" depart="522.71" departLane="best" from="-107395342#0" to="-507832774#13"/>
    <trip id="veh192" type="veh_passenger" depart="528.21" departLane="best" from="36836343#5" to="25356228#1"/>
    <trip id="veh193" type="veh_passenger" depart="530.96" departLane="best" from="22776252#7" to="-4520110#4"/>
    <trip id="veh194" type="veh_passenger" depart="533.72" departLane="best" from="232493265#6" to="6275040#6"/>
    <trip id="veh195" type="veh_passenger" depart="536.47" departLane="best" from="48482406#1" to="-369036184#0"/>
    <trip id="veh196" type="veh_passenger" depart="539.22" departLane="best" from="342241104" to="-724661087"/>
    <trip id="veh197" type="veh_passenger" depart="541.97" departLane="best" from="48982166#8" to="463466234"/>
    <trip id="veh198" type="veh_passenger" depart="544.72" departLane="best" from="36837892#10" to="-463466235#0"/>
    <trip id="veh199" type="veh_passenger" depart="547.47" departLane="best" departSpeed="max" from="-42295727#1" to="-121646897"/>
    <trip id="veh200" type="veh_passenger" depart="550.22" departLane="best" from="-475267425" to="255865853#2"/>
    <trip id="veh201" type="veh_passenger" depart="552.97" departLane="best" from="507832770#6" to="-255866004#2"/>
    <trip id="veh202" type="veh_passenger" depart="555.72" departLane="best" from="116785424#0" to="36836343#10"/>
    <trip id="veh203" type="veh_passenger" depart="558.48" departLane="best" departSpeed="max" from="-42295446#3" to="42295448#2"/>
    <trip id="veh204" type="veh_passenger" depart="561.23" departLane="best" from="255617621#0" to="-48482406#1"/>
    <trip id="veh206" type="veh_passenger" depart="566.73" departLane="best" from="458067676" to="475267434"/>
    <trip id="veh208" type="veh_passenger" depart="572.23" departLane="best" from="-37967011#2" to="75120003#2"/>
    <trip id="veh209" type="veh_passenger" depart="574.98" departLane="best" from="28738437#4" to="-232483173"/>
    <trip id="veh210" type="veh_passenger" depart="577.73" departLane="best" from="-4767531#5" to="507832770#2"/>
    <trip id="veh211" type="veh_passenger" depart="580.48" departLane="best" from="232490554#4" to="48482406#2"/>
    <trip id="veh212" type="veh_passenger" depart="583.24" departLane="best" from="36837811#0" to="89183643#1"/>
    <trip id="veh213" type="veh_passenger" depart="585.99" departLane="best" from="340383389#2" to="74837536#9"/>
    <trip id="veh214" type="veh_passenger" depart="588.74" departLane="best" from="62020099#5" to="342241110#0"/>
    <trip id="veh215" type="veh_passenger" depart="591.49" departLane="best" from="42788935#4" to="303129468#0"/>
    <trip id="veh216" type="veh_passenger" depart="594.24" departLane="best" from="507794809" to="323346984#6"/>
    <trip id="veh217" type="veh_passenger" depart="596.99" departLane="best" from="232493265#8" to="-48982166#18"/>
    <trip id="veh218" type="veh_passenger" depart="599.74" departLane="best" from="-4767531#1" to="36836343#9"/>
    <trip id="veh219" type="veh_passenger" depart="602.49" departLane="best" from="473557884#1" to="30516634#7"/>
    <trip id="veh220" type="veh_passenger" depart="605.24" departLane="best" from="342241092#4" to="-507832770#11"/>
    <trip id="veh221" type="veh_passenger" depart="608.00" departLane="best" from="-28738437#3" to="-507832774#10"/>
    <trip id="veh222" type="veh_passenger" depart="610.75" departLane="best" from="-48482411" to="-62020099#2"/>
    <trip id="veh223" type="veh_passenger" depart="613.50" departLane="best" from="30515623#2" to="-342241088#26"/>
    <trip id="veh224" type="veh_passenger" depart="616.25" departLane="best" from="-4520142#3" to="42295446#3"/>
    <trip id="veh225" type="veh_passenger" depart="619.00" departLane="best" from="42295440#0" to="-23477220#3"/>
    <trip id="veh227" type="veh_passenger" depart="624.50" departLane="best" from="116785424#2" to="-4520109#1"/>
    <trip id="veh228" type="veh_passenger" depart="627.25" departLane="best" from="116785472#0" to="646510833#1"/>
    <trip id="veh229" type="veh_passenger" depart="630.00" departLane="best" from="340383376#1" to="42295448#0"/>
    <trip id="veh230" type="veh_passenger" depart="632.76" departLane="best" from="507832774#17" to="475267429#1"/>
    <trip id="veh231" type="veh_passenger" depart="635.51" departLane="best" from="-83453053#1" to="-107760230#0"/>
    <trip id="veh232" type="veh_passenger" depart="638.26" departLane="best" from="-6275040#1" to="463466235#1"/>
    <trip id="veh233" type="veh_passenger" depart="641.01" departLane="best" from="507832774#11" to="75119993#3"/>
    <trip id="veh234" type="veh_passenger" depart="643.76" departLane="best" from="116785424#9" to="457958563#2"/>
    <trip id="veh235" type="veh_passenger" depart="646.51" departLane="best" from="30517551#0" to="342241092#4"/>
    <trip id="veh236" type="veh_passenger" depart="649.26" departLane="best" from="-4520109#6" to="-4520111#7"/>
    <trip id="veh237" type="veh_passenger" depart="652.01" departLane="best" from="-56701165#1" to="385645148#1"/>
    <trip id="veh238" type="veh_passenger" depart="654.76" departLane="best" from="108152049#1" to="-36837892#1"/>
    <trip id="veh239" type="veh_passenger" depart="657.52" departLane="best" from="232493265#11" to="-340383389#0"/>
    <trip id="veh241" type="veh_passenger" depart="663.02" departLane="best" from="107395342#2" to="340383377#6"/>
    <trip id="veh242" type="veh_passenger" depart="665.77" departLane="best" from="-121646897" to="36836347"/>
    <trip id="veh243" type="veh_passenger" depart="668.52" departLane="best" from="-342241088#19" to="23477220#4"/>
    <trip id="veh245" type="veh_passenger" depart="674.02" departLane="best" from="463469388#1" to="108152049#3"/>
    <trip id="veh246" type="veh_passenger" depart="676.77" departLane="best" from="458067678#0" to="507794808#3"/>
    <trip id="veh247" type="veh_passenger" depart="679.52" departLane="best" departSpeed="max" from="-116785424#11" to="31237909#6"/>
    <trip id="veh248" type="veh_passenger" depart="682.28" departLane="best" from="96774802#1" to="-8149308#6"/>
    <trip id="veh249" type="veh_passenger" depart="685.03" departLane="best" from="36836343#10" to="480409005#1"/>
    <trip id="veh250" type="veh_passenger" depart="687.78" departLane="best" from="36836343#11" to="463467836#1"/>
    <trip id="veh251" type="veh_passenger" depart="690.53" departLane="best" from="75119998#0" to="-42788935#6"/>
    <trip id="veh252" type="veh_passenger" depart="693.28" departLane="best" departSpeed="max" from="-116785424#11" to="-36827471#6"/>
    <trip id="veh253" type="veh_passenger" depart="696.03" departLane="best" from="-340383389#1" to="37825715#4"/>
    <trip id="veh254" type="veh_passenger" depart="698.78" departLane="best" from="31237890#9" to="-4520111#4"/>
    <trip id="veh256" type="veh_passenger" depart="704.28" departLane="best" from="-36837892#5" to="342241101#0"/>
    <trip id="veh258" type="veh_passenger" depart="709.79" departLane="best" from="-31237890#9" to="-135569565#1"/>
    <trip id="veh259" type="veh_passenger" depart="712.54" departLane="best" from="-507832774#2" to="385645148#0"/>
    <trip id="veh260" type="veh_passenger" depart="715.29" departLane="best" departSpeed="max" from="76232780" to="116785472#0"/>
    <trip id="veh261" type="veh_passenger" depart="718.04" departLane="best" from="42640353#4" to="-28738437#0"/>
    <trip id="veh262" type="veh_passenger" depart="720.79" departLane="best" from="37825705#2" to="36835378"/>
    <trip id="veh263" type="veh_passenger" depart="723.54" departLane="best" from="-31237877#3" to="476050527#2"/>
    <trip id="veh264" type="veh_passenger" depart="726.29" departLane="best" from="507832770#8" to="342241091#1"/>
    <trip id="veh265" type="veh_passenger" depart="729.04" departLane="best" from="-33613644#2" to="89183639#2"/>
    <trip id="veh266" type="veh_passenger" depart="731.80" departLane="best" from="4767531#1" to="-8149308#10"/>
    <trip id="veh267" type="veh_passenger" depart="734.55" departLane="best" from="164391748#2" to="107760230#1"/>
    <trip id="veh268" type="veh_passenger" depart="737.30" departLane="best" from="255866004#5" to="-74837536#6"/>
    <trip id="veh269" type="veh_passenger" depart="740.05" departLane="best" from="507832770#5" to="49299331#1"/>
    <trip id="veh270" type="veh_passenger" depart="742.80" departLane="best" from="-31237890#11" to="78485530#0"/>
    <trip id="veh271" type="veh_passenger" depart="745.55" departLane="best" from="342241108" to="507794806"/>
    <trip id="veh272" type="veh_passenger" depart="748.30" departLane="best" from="42295446#0" to="232493264"/>
    <trip id="veh273" type="veh_passenger" depart="751.05" departLane="best" from="4520110#0" to="8149308#11"/>
    <trip id="veh274" type="veh_passenger" depart="753.80" departLane="best" from="164391763#3" to="4520111#4"/>
    <trip id="veh275" type="veh_passenger" depart="756.56" departLane="best" from="-48482407#1" to="507832770#5"/>
    <trip id="veh276" type="veh_passenger" depart="759.31" departLane="best" from="507794809" to="-30515623#0"/>
    <trip id="veh277" type="veh_passenger" depart="762.06" departLane="best" from="62020081#2" to="-48482406#0"/>
    <trip id="veh278" type="veh_passenger" depart="764.81" departLane="best" from="232493265#1" to="342241105"/>
    <trip id="veh280" type="veh_passenger" depart="770.31" departLane="best" from="-4518151#16" to="48482399#0"/>
    <trip id="veh282" type="veh_passenger" depart="775.81" departLane="best" from="385645148#0" to="-507832770#15"/>