<?xml version="1.0" encoding="UTF-8"?>

<!-- By Eclipse SUMO polyconvert Version 1.3.1
<configuration xmlns:xsi="http://www.w3.org/2001/XMLSchema-instance" xsi:noNamespaceSchemaLocation="http://sumo.dlr.de/xsd/polyconvertConfiguration.xsd">

    <input>
        <net-file value="osm.net.xml"/>
        <osm-files value="osm_bbox.osm.xml"/>
        <osm.keep-full-type value="true"/>
        <type-file value="/usr/share/sumo/data/typemap/osmPolyconvert.typ.xml"/>
    </input>

    <output>
        <output-file value="osm.poly.xml"/>
    </output>

    <processing>
        <poi-layer-offset value="5"/>
    </processing>

    <report>
        <verbose value="true"/>
    </report>

</configuration>
-->

<additional xmlns:xsi="http://www.w3.org/2001/XMLSchema-instance" xsi:noNamespaceSchemaLocation="http://sumo.dlr.de/xsd/additional_file.xsd">
    <location netOffset="-480767.97,-5453148.84" convBoundary="-1721.84,-980.09,5137.56,5936.60" origBoundary="-123.287993,49.222122,-123.193671,49.284243" projParameter="+proj=utm +zone=10 +ellps=WGS84 +datum=WGS84 +units=m +no_defs"/>

    <poly id="100875877" type="building.yes" color="255,230,230" fill="1" layer="-1.00" shape="2545.341393,1722.815729 2552.799767,1681.404196 2530.493363,1677.047225 2528.067905,1693.241069 2542.267720,1695.654877 2540.383504,1705.532566 2526.321965,1703.107227 2523.202446,1718.424930 2545.341393,1722.815729"/>
    <poly id="106349570" type="leisure.pitch" color="207,245,201" fill="1" layer="-2.00" shape="1680.739447,3028.385580 1733.522032,2929.753122 1803.261826,2966.851968 1750.478392,3065.494876 1680.739447,3028.385580"/>
    <poly id="106349570#1" type="sport.soccer" color="79,230,125" fill="1" layer="-2.00" shape="1680.739447,3028.385580 1733.522032,2929.753122 1803.261826,2966.851968 1750.478392,3065.494876 1680.739447,3028.385580"/>
    <poly id="106349620" type="leisure.pitch" color="207,245,201" fill="1" layer="-2.00" shape="1594.735778,2984.214313 1645.692161,2888.277211 1581.483553,2854.375460 1530.527968,2950.313153 1594.735778,2984.214313"/>
    <poly id="106349620#1" type="sport.soccer" color="79,230,125" fill="1" layer="-2.00" shape="1594.735778,2984.214313 1645.692161,2888.277211 1581.483553,2854.375460 1530.527968,2950.313153 1594.735778,2984.214313"/>
    <poly id="106472119" type="leisure.pitch" color="207,245,201" fill="1" layer="-2.00" shape="1752.340815,2834.030491 1651.929804,2768.047856 1677.266306,2708.334749 1746.613017,2689.426097 1797.868842,2725.349638 1752.340815,2834.030491"/>
    <poly id="106472119#1" type="sport.baseball" color="79,230,125" fill="1" layer="-2.00" shape="1752.340815,2834.030491 1651.929804,2768.047856 1677.266306,2708.334749 1746.613017,2689.426097 1797.868842,2725.349638 1752.340815,2834.030491"/>
    <poly id="107095258" type="leisure.playground" color="207,245,201" fill="1" layer="-2.00" shape="2307.170540,2546.386207 2308.965735,2543.290131 2310.367392,2540.006274 2311.426791,2536.645650 2311.903448,2533.097827 2311.965350,2529.562396 2311.248369,2525.951540 2309.895448,2521.419920 2307.662924,2517.191167 2304.946596,2514.186785 2301.939628,2511.327821 2300.386169,2512.577716 2299.115489,2513.493228 2299.763771,2516.059286 2300.185779,2518.403697 2300.353057,2520.737775 2299.204900,2523.631756 2296.975536,2525.161659 2294.916408,2525.256933 2293.088297,2524.751172 2290.633817,2531.162182 2288.645819,2530.723617 2288.165308,2533.015221 2287.262423,2535.208071 2285.332041,2536.937167 2284.271102,2537.429587 2283.131467,2540.723761 2285.855057,2541.360166 2288.684823,2541.029057 2291.803310,2539.929980 2296.057902,2539.116454 2299.724664,2538.827243 2303.891742,2542.683178 2307.170540,2546.386207"/>
    <poly id="107095260" type="waterway.stream" color="181,209,209" fill="0" layer="-4.00" shape="2324.402921,2608.055426 2329.613472,2553.632290 2326.240328,2552.375301 2323.060997,2550.250583 2321.578744,2548.620923 2320.189895,2546.601877 2318.842179,2543.760039 2317.981100,2540.616544 2317.969995,2537.003518 2318.254140,2534.745872 2319.581941,2531.106497 2321.835294,2527.908962 2323.933199,2526.223833 2325.835787,2524.917287 2331.774981,2522.897966 2332.001360,2520.785020"/>
    <poly id="107095274" type="natural.water" color="181,209,209" fill="1" layer="-4.00" shape="2368.884266,2526.352724 2367.730794,2527.523555 2366.431783,2528.694832 2364.731138,2529.411539 2362.812216,2530.140033 2360.971639,2530.312431 2359.123307,2530.329215 2357.215805,2530.034902 2355.154564,2529.440899 2353.725948,2528.689316 2352.077861,2527.560426 2350.544841,2525.986499 2349.244038,2524.200635 2347.181510,2520.816245 2346.596721,2519.962022 2345.669159,2518.864274 2342.987580,2520.062034 2340.224794,2520.882062 2337.206425,2521.413831 2334.622427,2521.210539 2332.001360,2520.785020 2330.479605,2520.511766 2329.850155,2521.703229 2326.229706,2522.859412 2323.947008,2518.875383 2323.059313,2516.543517 2318.947746,2514.177090 2313.984419,2511.702114 2311.085041,2510.699371 2307.946202,2509.919708 2305.959970,2507.691277 2304.092563,2506.240680 2304.109191,2502.182884 2306.903448,2502.129822 2315.242796,2502.048596 2325.099942,2503.319007 2337.590041,2506.515729 2343.995107,2509.275348 2350.102216,2512.169293 2352.587476,2513.395668 2359.609524,2518.021087 2368.884266,2526.352724"/>
    <poly id="107095687" type="leisure.park" color="207,245,201" fill="1" layer="-2.00" shape="2280.062690,2784.742674 2295.710074,2754.767228 2303.494747,2744.815694 2308.562042,2736.206581 2308.556693,2727.368494 2306.232717,2719.404672 2308.749855,2681.331943 2326.297709,2682.389718 2356.022040,2684.177277 2339.752419,2734.454300 2334.722174,2743.296730 2332.442742,2759.301253 2324.835433,2789.096246 2318.441487,2804.057294 2280.062690,2784.742674"/>
    <poly id="107096351" type="building.yes" color="255,230,230" fill="1" layer="-1.00" shape="2099.355584,2566.328542 2105.310877,2569.522850 2111.244299,2572.706116 2120.064268,2577.447925 2119.890588,2577.759744 2122.536586,2579.185624 2123.397638,2577.604318 2124.815733,2574.965154 2125.602994,2575.396274 2128.757650,2569.561103 2128.006842,2569.152104 2128.976395,2567.359236 2129.953191,2565.555228 2130.696687,2565.953134 2139.596242,2549.461046 2137.314706,2548.234133 2139.152535,2544.837706 2137.060510,2543.710259 2137.574243,2542.763708 2117.448630,2531.964842 2114.431502,2537.566132 2103.448198,2557.911266 2103.047306,2557.701289 2101.810103,2560.006382 2102.553602,2560.404284 2100.889480,2563.488903 2099.355584,2566.328542"/>
    <poly id="107107977" type="amenity.fountain" color="237,199,199" fill="1" layer="-1.00" shape="2178.592675,2619.455683 2183.724232,2622.219062 2181.712755,2625.938409 2176.573959,2623.186171 2178.592675,2619.455683"/>
    <poly id="107107979" type="leisure.park" color="207,245,201" fill="1" layer="-2.00" shape="2326.297709,2682.389718 2331.001925,2628.979790 2322.682720,2628.449490 2315.993848,2628.014245 2308.749855,2681.331943 2326.297709,2682.389718"/>
    <poly id="107107980" type="natural.water" color="181,209,209" fill="1" layer="-4.00" shape="2319.166797,2703.845419 2327.457600,2704.642611 2328.315559,2694.934738 2322.091835,2694.286832 2319.959045,2694.071044 2319.166797,2703.845419"/>
    <poly id="107107982" type="waterway.stream" color="181,209,209" fill="0" layer="-4.00" shape="2322.091835,2694.286832 2322.362755,2682.991015 2322.590183,2678.854751 2322.961612,2671.849830 2322.755607,2668.748789 2322.093585,2666.438465 2321.138952,2663.628769 2320.519975,2661.118204 2320.293641,2658.506379 2322.682720,2628.449490"/>
    <poly id="107107983" type="waterway.stream" color="181,209,209" fill="0" layer="-4.00" shape="2176.573959,2623.186171 2181.712755,2625.938409 2274.656308,2678.557561 2322.362755,2682.991015"/>
    <poly id="107133467" type="building.yes" color="255,230,230" fill="1" layer="-1.00" shape="2052.266261,2655.067606 2059.671907,2659.002184 2067.770022,2663.312595 2074.220818,2666.749901 2077.267636,2668.374618 2083.395549,2656.938244 2084.827986,2654.243439 2084.266732,2653.945026 2086.292513,2650.170013 2087.587523,2647.742448 2089.721839,2643.766990 2091.863365,2639.769276 2090.842904,2639.227716 2091.913686,2637.234418 2092.977191,2635.241143 2094.085114,2635.826899 2095.061817,2634.000651 2097.116547,2630.169967 2099.496803,2625.715711 2101.254882,2622.430690 2101.703455,2621.595511 2102.191839,2621.860801 2105.961244,2614.823055 2109.723382,2607.785334 2107.966737,2606.856962 2108.234427,2606.355859 2097.293513,2600.531196 2087.198122,2595.159721 2087.002753,2595.516077 2085.173191,2594.543472 2083.950523,2596.837406 2080.845349,2595.179516 2078.074392,2600.357610 2074.037325,2607.896480 2079.278203,2610.692771 2075.132613,2618.432087 2073.504735,2621.461017 2070.523521,2619.880566 2069.445537,2621.896125 2066.833760,2626.773566 2065.574896,2629.123203 2068.337452,2630.593162 2066.955609,2633.176642 2064.011011,2638.666564 2062.419391,2641.650916 2057.317072,2638.943144 2055.486672,2642.361811 2052.245473,2648.408520 2050.899818,2650.925189 2053.691510,2652.406167 2052.266261,2655.067606"/>
    <poly id="107135531" type="building.yes" color="255,230,230" fill="1" layer="-1.00" shape="2101.793345,2678.525963 2101.957370,2682.127397 2132.418886,2698.652745 2145.081366,2675.445351 2131.508850,2668.072396 2133.404573,2664.586849 2134.395918,2665.128508 2140.647590,2653.669580 2138.387963,2652.453716 2147.577370,2635.604990 2150.551380,2637.218856 2150.073831,2638.098590 2161.904221,2644.509806 2170.746421,2628.306989 2152.188033,2618.247984 2147.945691,2615.948793 2147.569431,2616.639222 2145.994959,2615.788093 2144.332991,2614.881650 2144.571749,2614.436224 2135.766311,2609.660980 2134.369808,2612.222254 2127.640554,2624.560924 2126.367040,2626.888359 2128.429894,2628.004775 2121.736850,2640.276638 2115.883146,2651.000620 2113.864029,2649.906307 2112.279421,2652.812802 2106.816485,2662.824084 2099.884746,2675.530284 2101.793345,2678.525963"/>
    <poly id="107136055" type="building.yes" color="255,230,230" fill="1" layer="-1.00" shape="2152.418241,2441.529694 2156.018671,2443.297259 2157.428885,2440.446904 2159.710150,2441.573772 2158.849515,2443.299593 2162.369790,2445.034060 2162.102225,2445.579628 2165.279920,2447.137285 2165.193146,2447.315428 2172.109766,2450.718053 2173.093289,2448.725042 2174.791480,2449.564678 2173.844102,2451.479757 2177.422653,2453.236287 2178.362824,2451.343465 2181.241701,2452.757535 2181.841983,2451.555028 2183.933758,2452.593556 2185.936956,2448.529606 2186.192035,2448.651105 2187.689038,2445.622615 2186.967464,2445.257985 2188.370451,2442.418778 2189.551173,2443.004328 2191.843710,2438.372512 2188.563965,2436.759570 2189.222089,2435.434597 2186.109958,2433.898957 2186.565595,2432.985943 2183.497193,2431.472403 2184.567533,2429.312369 2185.739133,2426.951913 2188.683619,2428.399135 2189.211513,2427.319141 2192.236184,2428.810585 2192.937663,2427.385423 2196.108117,2428.954238 2198.415150,2424.300146 2197.074086,2423.637270 2198.506021,2420.742390 2199.183830,2421.073806 2200.673639,2418.067576 2200.323784,2417.890785 2202.159942,2413.927413 2200.010076,2412.933526 2200.617507,2411.686530 2197.658736,2410.328283 2198.020256,2409.571201 2194.405573,2407.903707 2194.694802,2407.302487 2191.479984,2405.511469 2191.183099,2405.990424 2187.785935,2404.066567 2187.417071,2404.801438 2185.689724,2403.950771 2186.717439,2402.124382 2180.243850,2398.453556 2180.402743,2398.063965 2177.340977,2396.350300 2177.225334,2396.606352 2173.398116,2394.461494 2172.210856,2396.466254 2171.008118,2395.825190 2169.386950,2398.709546 2167.629938,2397.681103 2165.632322,2401.200303 2166.448610,2401.597988 2164.718977,2404.705024 2165.957859,2405.268155 2164.032674,2408.675960 2167.758006,2410.821127 2168.032609,2410.197717 2170.146613,2411.358460 2169.814034,2412.059868 2177.905938,2416.626153 2178.043171,2416.292215 2183.007610,2419.078345 2181.865256,2421.483179 2182.615941,2421.847718 2181.632376,2423.829610 2182.215445,2424.116849 2181.159935,2426.365774 2183.100759,2428.005094 2180.982671,2432.569670 2177.957999,2431.078232 2177.661530,2431.690591 2174.104831,2429.945111 2173.656438,2430.846987 2171.936374,2429.996301 2172.796981,2428.259364 2165.953208,2424.889864 2166.018289,2424.756257 2163.044618,2423.286904 2162.863827,2423.654329 2158.877075,2421.687850 2157.785050,2423.892425 2156.648087,2423.340097 2155.194482,2426.279524 2153.518146,2425.450942 2150.299991,2431.964438 2150.649846,2432.141226 2148.675535,2436.127278 2150.876618,2437.209923 2150.305311,2438.367875 2153.264389,2439.826150 2152.418241,2441.529694"/>
    <poly id="107136578" type="building.yes" color="255,230,230" fill="1" layer="-1.00" shape="2231.483947,2445.831788 2243.772460,2452.030539 2243.649469,2452.264378 2246.193169,2453.546111 2245.947222,2454.024906 2249.307228,2455.715454 2250.399454,2453.566482 2252.804646,2454.770826 2254.518935,2451.397054 2258.395959,2443.758760 2255.990729,2442.543297 2257.336118,2439.893275 2255.827381,2439.130849 2257.117228,2437.348133 2246.923487,2433.166200 2246.865648,2433.288667 2240.480834,2430.062180 2239.822628,2431.364914 2236.688505,2429.773728 2236.044786,2431.054183 2233.267827,2429.650887 2232.457626,2431.220901 2230.015965,2429.994445 2230.486130,2429.070272 2229.319963,2428.484668 2228.394119,2430.310734 2227.213364,2429.714059 2223.914972,2436.194407 2226.123420,2437.310411 2225.269903,2438.991731 2223.848591,2438.262394 2222.958895,2440.010530 2221.486609,2439.270234 2220.343760,2441.519422 2221.437016,2442.060781 2220.359319,2444.198597 2225.497744,2446.784120 2224.043868,2449.645709 2222.597237,2452.496159 2217.801356,2450.076337 2216.593430,2452.459133 2215.208575,2451.751920 2213.964470,2454.201530 2215.057759,2454.754005 2214.283815,2456.279442 2215.909158,2457.097082 2215.012260,2458.867476 2212.475867,2457.596851 2211.072597,2460.347117 2211.626552,2460.634448 2209.659106,2464.498170 2210.074555,2464.708110 2209.177694,2466.489621 2210.679152,2467.252058 2210.946755,2466.717609 2213.293665,2467.899881 2212.490821,2469.492111 2221.980532,2474.287597 2222.768926,2472.728765 2226.354862,2474.529772 2225.385604,2476.433792 2231.128992,2479.339847 2232.532199,2476.567352 2234.842645,2477.727513 2233.150105,2481.067873 2236.663158,2482.835760 2237.422653,2481.343722 2240.017383,2482.658646 2240.610467,2481.478402 2242.607514,2482.483893 2244.466403,2478.809509 2245.355616,2479.262566 2246.889097,2476.256214 2245.526152,2475.571160 2247.160896,2472.364388 2245.411679,2471.491535 2246.851109,2468.663347 2245.750516,2468.099771 2246.878917,2465.883984 2239.947534,2462.392374 2239.766670,2462.737563 2236.822079,2461.245846 2234.205507,2459.930991 2233.366408,2461.567797 2230.436369,2460.076039 2231.586460,2457.815713 2226.666671,2455.329563 2231.483947,2445.831788"/>
    <poly id="107136581" type="building.yes" color="255,230,230" fill="1" layer="-1.00" shape="2259.083137,2470.726743 2256.400235,2476.215752 2265.998675,2480.888690 2268.674308,2475.399708 2259.083137,2470.726743"/>
    <poly id="107136583" type="building.yes" color="255,230,230" fill="1" layer="-1.00" shape="2118.729043,2508.448173 2121.819045,2509.894907 2120.973228,2511.698508 2124.558792,2513.377162 2125.021483,2512.397418 2128.293648,2513.921409 2127.563468,2515.468956 2131.178171,2517.158641 2131.568540,2516.323645 2141.355910,2520.895725 2141.919791,2519.693326 2147.079463,2522.100836 2149.472394,2517.012889 2151.724280,2518.062025 2153.669006,2513.931542 2152.182314,2513.235778 2153.208928,2511.064755 2154.615435,2511.716300 2155.844463,2509.111083 2154.780426,2508.602998 2155.770863,2506.498791 2154.021816,2505.681552 2155.923128,2501.629024 2157.912664,2502.556689 2158.664513,2500.953493 2160.143931,2501.649281 2161.582619,2498.598730 2160.081370,2497.903009 2161.288710,2495.342329 2159.342902,2494.436762 2160.130931,2492.766751 2162.280808,2493.771740 2163.032659,2492.168544 2164.716112,2492.952638 2165.272793,2491.772498 2164.427445,2491.386021 2165.244343,2489.638101 2164.202203,2489.152180 2165.677041,2486.023699 2164.401723,2485.438447 2165.515086,2483.078167 2168.415609,2484.436578 2169.984398,2481.096581 2171.565837,2481.836525 2174.428719,2475.746593 2162.717347,2470.279935 2161.444955,2472.985339 2157.968705,2471.361907 2157.079450,2473.243458 2154.157087,2471.885121 2153.571471,2473.120937 2150.641796,2471.751508 2145.566745,2482.550857 2146.521459,2483.003695 2144.764723,2486.744497 2142.760589,2485.805766 2140.953262,2489.657898 2141.995404,2490.143815 2140.564001,2493.194348 2141.693606,2493.724461 2140.565804,2496.118142 2142.161831,2496.869149 2140.253216,2500.910587 2136.981047,2499.386589 2137.928128,2497.382567 2132.637235,2494.908771 2133.078235,2493.973564 2130.017371,2492.537851 2129.243836,2494.185587 2127.589521,2493.412530 2126.396715,2495.962055 2123.037076,2494.393869 2121.641793,2497.355358 2120.253790,2500.316825 2109.249330,2495.181596 2110.225267,2493.099660 2107.033236,2491.608782 2107.864635,2489.849692 2113.512640,2492.489110 2114.531966,2490.318103 2116.339345,2491.168499 2121.067311,2481.103930 2120.032443,2480.617995 2121.738570,2476.988513 2123.072215,2477.606925 2126.310968,2470.715367 2124.795117,2470.008584 2126.045799,2467.347707 2124.471627,2466.607754 2125.534383,2464.358794 2129.411475,2466.169951 2131.182658,2462.395747 2129.389861,2461.556418 2130.835786,2458.494720 2129.502137,2457.876306 2130.543169,2455.660766 2126.964881,2453.993203 2127.622781,2452.601520 2120.823261,2449.420929 2119.955743,2451.269066 2116.982315,2449.877556 2116.512413,2450.879557 2113.721190,2449.576420 2111.725945,2453.840479 2109.954703,2457.592455 2111.995273,2458.542178 2111.062679,2460.523925 2109.065842,2459.596300 2105.754783,2466.632615 2107.460119,2467.427741 2106.599815,2469.253624 2104.770562,2468.392181 2098.141301,2482.498194 2099.409349,2483.083453 2098.715317,2484.553072 2095.814777,2483.194698 2092.142284,2490.999228 2094.204745,2491.971111 2093.409562,2493.674505 2096.025876,2494.900357 2095.042702,2496.993435 2098.919816,2498.815687 2099.563184,2497.435163 2102.820811,2498.959183 2102.032870,2500.651437 2105.217586,2502.131218 2118.729043,2508.448173"/>
    <poly id="107136614" type="building.apartments" color="255,230,230" fill="1" layer="-1.00" shape="2201.725820,2713.390342 2212.772255,2692.267007 2239.258978,2706.037077 2228.212470,2727.160360 2201.725820,2713.390342"/>
    <poly id="107141377" type="leisure.pitch" color="207,245,201" fill="1" layer="-2.00" shape="1939.389617,3542.845403 1912.998979,3528.520616 1923.665777,3507.864773 1925.810896,3507.468925 1927.764992,3506.484471 1941.548302,3484.262464 1943.883764,3481.920528 1946.807402,3481.522242 1967.029610,3493.954398 1939.389617,3542.845403"/>
    <poly id="107141490" type="amenity.parking" color="184,184,179" fill="1" layer="-1.00" shape="1958.214083,2614.050826 1966.793457,2618.626389 1969.330078,2619.974719 1982.661992,2627.092336 1999.725907,2636.199379 2008.866472,2641.073411 2033.490324,2596.394546 2024.429615,2591.475755 2005.617079,2581.718199 1990.527853,2573.494321 1987.340500,2571.169714 1983.187383,2578.797951 1979.176477,2576.075714 1958.214083,2614.050826"/>
    <poly id="107142733" type="building.yes" color="255,230,230" fill="1" layer="-1.00" shape="2026.008009,2670.380087 2031.288243,2660.169187 2015.894545,2652.235236 2016.169432,2651.711872 1981.365816,2633.777784 1980.736525,2634.991522 1975.714554,2632.394745 1970.116862,2643.451595 1980.394028,2648.766699 1980.994385,2647.608638 2023.916078,2669.274916 2026.008009,2670.380087"/>
    <poly id="107142733#1" type="shop.supermarket" color="237,199,255" fill="1" layer="-1.00" shape="2026.008009,2670.380087 2031.288243,2660.169187 2015.894545,2652.235236 2016.169432,2651.711872 1981.365816,2633.777784 1980.736525,2634.991522 1975.714554,2632.394745 1970.116862,2643.451595 1980.394028,2648.766699 1980.994385,2647.608638 2023.916078,2669.274916 2026.008009,2670.380087"/>
    <poly id="107253245" type="amenity.parking" color="184,184,179" fill="1" layer="-1.00" shape="2238.896030,2392.880351 2257.674710,2401.026826 2250.571610,2417.379768 2231.481979,2409.856835 2238.896030,2392.880351"/>
    <poly id="107253250" type="building.yes" color="255,230,230" fill="1" layer="-1.00" shape="2240.800155,2389.706097 2247.209794,2375.022849 2255.036107,2378.422771 2256.112836,2375.962569 2263.997429,2379.384558 2256.749492,2395.982513 2253.725370,2394.668906 2252.576422,2397.307205 2247.905420,2395.276070 2248.815899,2393.183244 2240.800155,2389.706097"/>
    <poly id="107253251" type="natural.water" color="181,209,209" fill="1" layer="-4.00" shape="2041.704933,2717.167432 2032.222444,2712.272180 2029.625993,2717.371934 2026.841499,2715.857594 2025.097666,2719.020307 2020.213912,2716.378589 2021.733206,2713.550090 2014.005653,2709.049597 2013.052560,2711.431642 2014.989223,2714.082573 2016.867147,2716.566932 2019.192858,2717.971530 2022.998048,2720.105232 2026.693041,2721.905768 2031.341304,2721.379850 2036.154293,2720.008521 2039.780266,2718.351859 2041.704933,2717.167432"/>
    <poly id="107253253" type="building.yes" color="255,230,230" fill="1" layer="-1.00" shape="2180.382362,2372.694790 2185.009366,2374.603716 2183.824714,2377.453365 2186.389571,2378.501546 2185.898404,2379.692597 2189.330385,2381.104958 2189.503731,2380.681971 2192.214336,2381.796406 2192.539402,2381.017202 2195.009548,2382.032329 2194.518345,2383.212263 2197.848303,2384.580477 2198.274460,2383.545267 2201.036071,2384.681782 2201.411700,2383.780134 2204.187900,2384.927723 2204.021796,2385.339570 2207.584932,2386.807123 2207.259898,2387.597443 2210.640860,2388.987740 2212.793417,2383.789395 2212.676809,2383.734170 2213.399203,2382.008784 2214.069568,2382.284639 2215.073609,2379.858006 2215.824126,2380.166964 2217.485482,2376.148552 2216.858815,2375.883679 2217.898969,2373.367997 2216.390656,2372.750103 2217.452506,2370.189885 2218.589233,2370.664407 2220.012232,2367.224822 2218.911959,2366.772422 2221.021212,2361.685385 2222.223505,2362.181939 2223.682654,2358.664424 2222.647977,2358.245171 2224.713849,2353.247206 2225.887000,2353.732734 2227.317216,2350.270895 2226.173208,2349.796394 2227.184537,2347.369740 2228.802187,2348.042886 2229.979590,2345.193269 2229.316500,2344.917390 2230.009967,2343.247682 2230.221248,2343.324849 2232.409953,2338.037463 2229.130985,2336.691305 2228.863752,2337.348040 2225.213160,2335.847393 2225.104791,2336.103421 2219.698136,2333.885593 2220.196558,2332.683405 2216.684401,2331.237921 2216.236577,2332.328782 2211.551262,2330.397776 2211.825771,2329.741018 2208.787253,2328.494182 2209.198964,2327.492369 2205.817964,2326.102072 2204.712826,2328.784713 2202.169816,2327.747574 2200.826215,2330.975692 2199.543794,2330.457156 2198.351917,2333.329058 2198.563234,2333.417341 2196.410636,2338.604575 2199.266979,2339.774148 2198.797499,2340.920663 2204.932846,2343.447495 2204.643887,2344.137650 2209.926686,2346.311378 2208.518105,2349.706452 2209.567373,2350.136774 2208.512801,2352.696970 2206.647413,2351.924543 2205.600017,2354.451366 2204.448730,2353.976892 2203.025704,2357.405364 2204.147846,2357.868810 2203.028229,2360.573731 2204.354375,2361.114366 2203.574210,2362.984454 2196.487733,2365.863481 2194.622418,2365.113291 2195.070269,2364.033546 2192.476229,2362.963217 2192.035621,2364.031823 2185.127904,2361.185001 2183.986672,2363.956696 2185.050528,2364.398085 2184.169281,2366.524182 2182.362216,2365.784933 2180.946449,2369.202271 2181.696969,2369.511225 2180.382362,2372.694790"/>
    <poly id="107259864" type="building.yes" color="255,230,230" fill="1" layer="-1.00" shape="2260.701055,2471.499951 2263.391310,2466.033156 2273.288603,2470.860825 2270.605652,2476.338710 2260.701055,2471.499951"/>
    <poly id="107259865" type="building.yes" color="255,230,230" fill="1" layer="-1.00" shape="2288.641138,2455.927732 2294.510883,2457.332654 2297.083118,2446.607847 2291.213362,2445.202922 2288.641138,2455.927732"/>
    <poly id="107259866" type="building.yes" color="255,230,230" fill="1" layer="-1.00" shape="2274.741972,2496.170001 2280.249914,2493.529395 2275.489328,2483.649835 2269.974102,2486.290467 2274.741972,2496.170001"/>
    <poly id="107259867" type="building.yes" color="255,230,230" fill="1" layer="-1.00" shape="2327.187425,2465.069746 2321.084692,2463.621037 2323.793602,2452.362202 2329.896346,2453.810914 2327.187425,2465.069746"/>
    <poly id="107259868" type="building.yes" color="255,230,230" fill="1" layer="-1.00" shape="2263.718827,2501.451251 2269.226758,2498.810634 2264.458880,2488.931106 2258.950941,2491.571727 2263.718827,2501.451251"/>
    <poly id="107259869" type="building.yes" color="255,230,230" fill="1" layer="-1.00" shape="2321.084692,2463.621037 2314.989199,2462.161195 2317.698097,2450.902357 2323.793602,2452.362202 2321.084692,2463.621037"/>
    <poly id="107259870" type="building.yes" color="255,230,230" fill="1" layer="-1.00" shape="2272.889301,2452.274252 2278.911976,2453.712037 2281.592004,2442.553324 2275.576595,2441.115513 2272.889301,2452.274252"/>
    <poly id="107259871" type="building.yes" color="255,230,230" fill="1" layer="-1.00" shape="2294.468495,2490.850863 2288.424593,2491.958943 2286.352404,2480.725928 2292.403595,2479.617822 2294.468495,2490.850863"/>
    <poly id="107259872" type="building.yes" color="255,230,230" fill="1" layer="-1.00" shape="2315.276816,2489.441692 2309.270179,2488.470736 2311.055749,2477.503778 2317.062397,2478.474736 2315.276816,2489.441692"/>
    <poly id="107259873" type="building.yes" color="255,230,230" fill="1" layer="-1.00" shape="2306.250330,2460.131400 2312.120066,2461.536340 2314.699610,2450.811520 2308.829863,2449.406576 2306.250330,2460.131400"/>
    <poly id="107259874" type="building.yes" color="255,230,230" fill="1" layer="-1.00" shape="2269.226758,2498.810634 2274.741972,2496.170001 2269.974102,2486.290467 2264.458880,2488.931106 2269.226758,2498.810634"/>
    <poly id="107259875" type="building.yes" color="255,230,230" fill="1" layer="-1.00" shape="2278.911976,2453.712037 2284.927372,2455.149852 2287.614688,2443.991119 2281.592004,2442.553324 2278.911976,2453.712037"/>
    <poly id="107259876" type="building.yes" color="255,230,230" fill="1" layer="-1.00" shape="2288.424593,2491.958943 2282.373383,2493.055936 2280.308493,2481.834017 2286.352404,2480.725928 2288.424593,2491.958943"/>
    <poly id="107259877" type="building.yes" color="255,230,230" fill="1" layer="-1.00" shape="2333.282912,2466.529602 2327.187425,2465.069746 2329.896346,2453.810914 2335.991845,2455.270773 2333.282912,2466.529602"/>
    <poly id="107259878" type="building.yes" color="255,230,230" fill="1" layer="-1.00" shape="2306.563616,2488.645816 2300.519710,2489.753883 2298.454787,2478.509724 2304.498706,2477.401654 2306.563616,2488.645816"/>
    <poly id="107259879" type="building.yes" color="255,230,230" fill="1" layer="-1.00" shape="2327.282841,2491.394763 2321.276208,2490.423794 2323.061801,2479.456840 2329.068445,2480.427811 2327.282841,2491.394763"/>
    <poly id="107259880" type="building.yes" color="255,230,230" fill="1" layer="-1.00" shape="2263.391310,2466.033156 2266.081536,2460.555245 2275.978870,2465.394036 2273.288603,2470.860825 2263.391310,2466.033156"/>
    <poly id="107259881" type="building.yes" color="255,230,230" fill="1" layer="-1.00" shape="2294.510883,2457.332654 2300.380625,2458.737582 2302.952870,2448.012778 2297.083118,2446.607847 2294.510883,2457.332654"/>
    <poly id="107259882" type="building.yes" color="255,230,230" fill="1" layer="-1.00" shape="2258.210901,2504.091873 2263.718827,2501.451251 2258.950941,2491.571727 2253.435730,2494.212377 2258.210901,2504.091873"/>
    <poly id="107259883" type="building.yes" color="255,230,230" fill="1" layer="-1.00" shape="2266.873899,2450.836451 2272.889301,2452.274252 2275.576595,2441.115513 2269.553904,2439.677732 2266.873899,2450.836451"/>
    <poly id="107259884" type="building.yes" color="255,230,230" fill="1" layer="-1.00" shape="2300.519710,2489.753883 2294.468495,2490.850863 2292.403595,2479.617822 2298.454787,2478.509724 2300.519710,2489.753883"/>
    <poly id="107259885" type="building.yes" color="255,230,230" fill="1" layer="-1.00" shape="2321.276208,2490.423794 2315.276816,2489.441692 2317.062397,2478.474736 2323.061801,2479.456840 2321.276208,2490.423794"/>
    <poly id="107259886" type="building.yes" color="255,230,230" fill="1" layer="-1.00" shape="2300.380625,2458.737582 2306.250330,2460.131400 2308.829863,2449.406576 2302.952870,2448.012778 2300.380625,2458.737582"/>
    <poly id="107269770" type="waterway.stream" color="181,209,209" fill="0" layer="-4.00" shape="2256.686720,2630.431404 2257.666643,2615.475868"/>
    <poly id="107269771" type="natural.water" color="181,209,209" fill="1" layer="-4.00" shape="2223.661207,2596.615070 2257.666643,2615.475868 2258.832973,2616.128180 2259.283549,2608.856201 2254.451499,2608.815520 2254.379078,2606.570087 2249.728503,2606.384328 2249.786551,2603.971736 2245.715726,2603.005994 2242.289217,2600.959906 2238.807683,2597.591054 2235.949800,2595.876727 2232.131771,2594.298773 2228.672886,2593.553495 2223.834472,2593.813023 2223.661207,2596.615070"/>
    <poly id="107269923" type="landuse.residential" color="235,235,227" fill="1" layer="-3.00" shape="2252.854025,2515.592371 2281.901790,2500.605905 2307.846790,2496.523899 2333.161680,2498.147026 2343.313569,2453.180518 2268.196940,2436.213377 2242.047479,2496.726637 2252.854025,2515.592371"/>